version 2
run General-0-20220111-17:22:42-380
attr configname General
attr datetime 20220111-17:22:42
attr experiment General
attr inifile tictocFinal.ini
attr iterationvars ""
attr iterationvarsf ""
attr measurement ""
attr network tictocFinal
attr processid 380
attr repetition 0
attr replication #0
attr resultdir results
attr runnumber 0
attr seedset 0

scalar tictocFinal.node4 #sent 9429
scalar tictocFinal.node4 #received 9429
statistic tictocFinal.node4 "hop count"
field count 7029
field mean 0.5687864561104
field stddev 0.90168309614427
field min 0
field max 9
field sum 3998
field sqrsum 7988
attr type int
bin	-inf	0
bin	-2	0
bin	-1	0
bin	0	4385
bin	1	1736
bin	2	595
bin	3	221
bin	4	63
bin	5	22
bin	6	7
statistic tictocFinal.node4 "end to end Delay"
field count 7029
field mean 5186.1659520535
field stddev 3172.8291307475
field min 1.152276359622
field max 12300.172462964
field sum 36453560.476984
field sqrsum 259803998678.7
bin	-inf	0
bin	0	130
bin	160	119
bin	320	119
bin	480	133
bin	640	118
bin	800	92
bin	960	123
bin	1120	121
bin	1280	109
bin	1440	119
bin	1600	102
bin	1760	96
bin	1920	96
bin	2080	103
bin	2240	109
bin	2400	131
bin	2560	103
bin	2720	106
bin	2880	105
bin	3040	109
bin	3200	106
bin	3360	106
bin	3520	104
bin	3680	97
bin	3840	115
bin	4000	90
bin	4160	119
bin	4320	106
bin	4480	101
bin	4640	106
bin	4800	100
bin	4960	133
bin	5120	127
bin	5280	87
bin	5440	138
bin	5600	120
bin	5760	108
bin	5920	89
bin	6080	115
bin	6240	102
bin	6400	104
bin	6560	107
bin	6720	112
bin	6880	117
bin	7040	86
bin	7200	142
bin	7360	128
bin	7520	107
bin	7680	119
bin	7840	114
bin	8000	107
bin	8160	108
bin	8320	85
bin	8480	99
bin	8640	111
bin	8800	108
bin	8960	113
bin	9120	19
bin	9280	52
bin	9440	30
bin	9600	38
bin	9760	46
bin	9920	33
bin	10080	21
bin	10240	35
bin	10400	47
bin	10560	51
bin	10720	38
bin	10880	36
bin	11040	38
bin	11200	33
bin	11360	39
bin	11520	44
bin	11680	50
bin	11840	43
bin	12000	30
bin	12160	27
bin	12320	0
scalar tictocFinal.node5 #sent 30767
scalar tictocFinal.node5 #received 30767
statistic tictocFinal.node5 "hop count"
field count 22971
field mean 0.5379826738061
field stddev 0.87179002888705
field min 0
field max 8
field sum 12358
field sqrsum 24106
attr type int
bin	-inf	0
bin	-2	0
bin	-1	0
bin	0	14675
bin	1	5512
bin	2	1898
bin	3	611
bin	4	180
bin	5	95
statistic tictocFinal.node5 "end to end Delay"
field count 22971
field mean 8570.3443376089
field stddev 5475.9978931327
field min 0.209276359621
field max 20194.573006796
field sum 196869379.77921
field sqrsum 2376029494940.3
bin	-inf	0
bin	0	509
bin	320	511
bin	640	440
bin	960	457
bin	1280	479
bin	1600	484
bin	1920	409
bin	2240	448
bin	2560	453
bin	2880	454
bin	3200	423
bin	3520	479
bin	3840	439
bin	4160	472
bin	4480	468
bin	4800	442
bin	5120	429
bin	5440	429
bin	5760	477
bin	6080	465
bin	6400	458
bin	6720	452
bin	7040	364
bin	7360	492
bin	7680	442
bin	8000	414
bin	8320	463
bin	8640	444
bin	8960	427
bin	9280	418
bin	9600	450
bin	9920	469
bin	10240	441
bin	10560	469
bin	10880	476
bin	11200	383
bin	11520	407
bin	11840	468
bin	12160	438
bin	12480	215
bin	12800	227
bin	13120	218
bin	13440	239
bin	13760	247
bin	14080	233
bin	14400	245
bin	14720	221
bin	15040	187
bin	15360	214
bin	15680	203
bin	16000	209
bin	16320	257
bin	16640	225
bin	16960	197
bin	17280	216
bin	17600	217
bin	17920	232
bin	18240	229
bin	18560	228
bin	18880	249
bin	19200	218
bin	19520	226
bin	19840	245
bin	20160	32
bin	20480	0

